
**** 12/18/21 09:59:44 ******* PSpice 17.4.0 (Nov 2018) ******* ID# 0 ********

 ** Profile: "SCHEMATIC1-BiasPoint"  [ C:\Users\user\OneDrive\Desktop\Liron\Studies\PSPICE\PspiceAmplifierProject\Amplifier v2-PSpice


 ****     CIRCUIT DESCRIPTION


******************************************************************************




** Creating circuit file "BiasPoint.cir" 
** WARNING: THIS AUTOMATICALLY GENERATED FILE MAY BE OVERWRITTEN BY SUBSEQUENT SIMULATIONS

*Libraries: 
* Profile Libraries :
* Local Libraries :
* From [PSPICE NETLIST] section of C:\cds_spb_home\cdssetup\OrCAD_PSpiceTIPSpice_Install\17.4.0\PSpice.ini file:
.lib "nom_pspti.lib" 
.lib "nom.lib" 

*Analysis directives: 
.OPTIONS ADVCONV
.OPTIONS FILEMODELSEARCH
.PROBE64 V(alias(*)) I(alias(*)) W(alias(*)) D(alias(*)) NOISE(alias(*)) 
.INC "..\SCHEMATIC1.net" 



**** INCLUDING SCHEMATIC1.net ****
* source AMPLIFIER V2
V_V1         N00149 N00156 DC 0Vdc AC 1Vac 
Q_Q1         N00168 N00213 N00184 QbreakN 
Q_Q2         N00149 N00168 N00514 QbreakN 
R_R1         N00149 N00145  1k  
C_C1         N00145 N00184  1n  
R_R2         N00156 N00213  1k  
C_C2         N00156 N00213  1n  
V_V2         0 N00156 5Vdc
V_V3         N00149 0 5Vdc
R_RL         N00156 N00514  1k  

**** RESUMING BiasPoint.cir ****
.END

ERROR(ORPSIM-15143): Voltage source and/or inductor loop involving V_V1. You may break the loop by adding a series resistance
