
**** 12/25/21 13:19:45 ******* PSpice 17.4.0 (Nov 2018) ******* ID# 0 ********

 ** Profile: "SCHEMATIC1-BiasPoint3"  [ C:\Users\user\OneDrive\Desktop\Liron\Studies\PSPICE\PspiceAmplifierProject\amplifier v2-pspic


 ****     CIRCUIT DESCRIPTION


******************************************************************************




** Creating circuit file "BiasPoint3.cir" 
** WARNING: THIS AUTOMATICALLY GENERATED FILE MAY BE OVERWRITTEN BY SUBSEQUENT SIMULATIONS

*Libraries: 
* Profile Libraries :
* Local Libraries :
* From [PSPICE NETLIST] section of C:\cds_spb_home\cdssetup\OrCAD_PSpiceTIPSpice_Install\17.4.0\PSpice.ini file:
.lib "nom_pspti.lib" 
.lib "nom.lib" 

*Analysis directives: 
.OPTIONS ADVCONV
.OPTIONS FILEMODELSEARCH
.PROBE64 V(alias(*)) I(alias(*)) W(alias(*)) D(alias(*)) NOISE(alias(*)) 
.INC "..\SCHEMATIC1.net" 



**** INCLUDING SCHEMATIC1.net ****
* source AMPLIFIER V2
V_V1         N00940 0 DC 0Vdc AC 1Vac 
Q_Q1         N05752 N08093 N04350 QbreakN 
Q_Q2         N06783 N05468 N05176 QbreakN 
R_Rs         N00940 N10230  57  
C_C1         N10230 N04350  10n  
V_V3         N04818 0 5Vdc
R_RE1         N03641 N04350  4.03k  
R_RC2         N06783 N04818  1k  
R_RC1         N05752 N08500  18.4k  
R_RB3         N05468 N04818  340k  
R_RB4         0 N05468  340k  
R_RE2         0 N05176  4,5k  
--------------------------$
ERROR(ORPSIM-16015): Unknown parameter.
C_C2         N03641 N04350  100p  
R_RB1         N08098 N08093  100k  
V_V4         0 N08098 5Vdc
V_V5         0 N03641 5Vdc
R_RB2         0 N08093  100k  
C_C3         N05752 N05468  10n  
C_C4         0 N08093  100p  
V_V6         N08500 0 5Vdc

**** RESUMING BiasPoint3.cir ****
.END
